Version 4
SHEET 1 3476 844
WIRE -16 -880 -640 -880
WIRE 224 -880 -16 -880
WIRE 752 -880 224 -880
WIRE 1104 -880 752 -880
WIRE 1264 -880 1104 -880
WIRE 1472 -880 1264 -880
WIRE 752 -848 752 -880
WIRE -16 -736 -16 -880
WIRE 224 -736 224 -880
WIRE 752 -736 752 -768
WIRE 656 -688 512 -688
WIRE 688 -688 656 -688
WIRE 1104 -688 1104 -880
WIRE 656 -656 656 -688
WIRE 960 -640 752 -640
WIRE 1040 -640 960 -640
WIRE 1264 -624 1264 -880
WIRE -1024 -608 -1024 -640
WIRE -880 -608 -1024 -608
WIRE 960 -592 960 -640
WIRE 1104 -576 1104 -592
WIRE 1200 -576 1104 -576
WIRE 656 -560 656 -592
WIRE 752 -560 752 -640
WIRE 752 -560 656 -560
WIRE 1472 -560 1472 -880
WIRE -1024 -544 -1024 -608
WIRE -880 -544 -880 -608
WIRE -16 -528 -16 -656
WIRE 224 -528 224 -656
WIRE 1104 -496 1104 -576
WIRE 1264 -496 1264 -528
WIRE 1264 -496 1184 -496
WIRE 112 -480 48 -480
WIRE 160 -480 112 -480
WIRE 960 -464 960 -528
WIRE 960 -432 960 -464
WIRE 112 -400 112 -480
WIRE 224 -400 224 -432
WIRE 224 -400 112 -400
WIRE -1024 -384 -1024 -464
WIRE -880 -384 -880 -480
WIRE -880 -384 -1024 -384
WIRE -848 -384 -880 -384
WIRE 1024 -384 1024 -464
WIRE 1104 -384 1024 -384
WIRE 1120 -384 1104 -384
WIRE 1264 -384 1264 -496
WIRE 1264 -384 1200 -384
WIRE 1472 -384 1472 -496
WIRE 1472 -384 1264 -384
WIRE -848 -352 -848 -384
WIRE -16 -336 -16 -432
WIRE 384 -336 -16 -336
WIRE 512 -336 512 -688
WIRE 512 -336 464 -336
WIRE 1104 -336 1104 -384
WIRE 1264 -336 1264 -384
WIRE -1024 -304 -1024 -384
WIRE -880 -272 -880 -384
WIRE -16 -224 -16 -336
WIRE 224 -224 224 -400
WIRE -1024 -176 -1024 -224
WIRE -880 -176 -880 -208
WIRE -880 -176 -1024 -176
WIRE -528 -176 -608 -176
WIRE -432 -176 -464 -176
WIRE -272 -176 -352 -176
WIRE -160 -176 -272 -176
WIRE -80 -176 -160 -176
WIRE 288 -176 272 -176
WIRE 352 -176 288 -176
WIRE 480 -176 432 -176
WIRE 496 -176 480 -176
WIRE 544 -176 496 -176
WIRE 960 -176 960 -336
WIRE 960 -176 624 -176
WIRE 1104 -176 1104 -256
WIRE 1104 -176 960 -176
WIRE 1264 -176 1264 -256
WIRE 1264 -176 1104 -176
WIRE 1472 -176 1264 -176
WIRE 1584 -176 1472 -176
WIRE 1616 -176 1584 -176
WIRE 1728 -176 1696 -176
WIRE 1840 -176 1728 -176
WIRE 1968 -176 1840 -176
WIRE 2192 -176 2160 -176
WIRE 2320 -176 2272 -176
WIRE 2432 -176 2320 -176
WIRE 2592 -176 2432 -176
WIRE 2720 -176 2592 -176
WIRE 2752 -176 2720 -176
WIRE -1024 -160 -1024 -176
WIRE 752 -128 752 -560
WIRE 752 -128 640 -128
WIRE 1472 -128 1472 -176
WIRE 640 -112 640 -128
WIRE 1840 -112 1840 -176
WIRE 2432 -112 2432 -176
WIRE 2592 -112 2592 -176
WIRE 2720 -112 2720 -176
WIRE -160 -96 -160 -176
WIRE 2320 -96 2320 -176
WIRE -272 -80 -272 -176
WIRE 496 -80 496 -176
WIRE -16 -64 -16 -128
WIRE 0 -64 -16 -64
WIRE 96 -64 80 -64
WIRE 144 -64 96 -64
WIRE 224 -64 224 -128
WIRE 752 -64 752 -128
WIRE 832 -64 752 -64
WIRE 1104 -64 1104 -176
WIRE 1264 -64 1264 -176
WIRE 1584 -64 1584 -176
WIRE 1616 -64 1584 -64
WIRE 1728 -64 1728 -176
WIRE 1728 -64 1696 -64
WIRE 752 -48 752 -64
WIRE 832 -32 832 -64
WIRE 1472 -16 1472 -64
WIRE 496 0 496 -16
WIRE 640 0 640 -32
WIRE 688 0 640 0
WIRE 1840 0 1840 -32
WIRE 1840 0 1776 0
WIRE 1936 0 1840 0
WIRE 960 32 960 -176
WIRE 2320 32 2320 -32
WIRE 2432 32 2432 -32
WIRE 2432 32 2320 32
WIRE 2592 32 2592 -32
WIRE 2592 32 2432 32
WIRE 2720 32 2720 -48
WIRE 2720 32 2592 32
WIRE -272 48 -272 -16
WIRE -160 48 -160 -16
WIRE -160 48 -272 48
WIRE -80 48 -160 48
WIRE 0 48 -16 48
WIRE 640 48 640 0
WIRE 752 80 752 48
WIRE 832 80 832 32
WIRE 832 80 752 80
WIRE 1104 80 1104 16
WIRE 1104 80 1024 80
WIRE 1776 80 1776 0
WIRE 1840 80 1840 64
WIRE 1840 80 1776 80
WIRE 1936 80 1840 80
WIRE 2320 80 2320 32
WIRE -80 96 -80 48
WIRE 496 96 496 80
WIRE 1472 96 1472 64
WIRE 1840 96 1840 80
WIRE -160 128 -160 48
WIRE 1104 128 1104 80
WIRE 1120 128 1104 128
WIRE 1264 128 1264 16
WIRE 1264 128 1200 128
WIRE 640 144 640 128
WIRE 752 144 752 80
WIRE 752 144 640 144
WIRE -1216 160 -1216 112
WIRE -1040 160 -1040 96
WIRE 960 176 960 128
WIRE 1024 176 1024 80
WIRE 96 192 96 -64
WIRE 1264 208 1264 128
WIRE 1264 208 1184 208
WIRE 1520 208 1264 208
WIRE 1264 224 1264 208
WIRE -80 240 -80 176
WIRE 32 240 -80 240
WIRE 960 256 960 176
WIRE 1104 272 1104 208
WIRE 1200 272 1104 272
WIRE -1216 288 -1216 240
WIRE -1040 288 -1040 240
WIRE -80 304 -80 240
WIRE 752 304 752 144
WIRE 752 304 624 304
WIRE 1520 304 1520 208
WIRE 624 336 624 304
WIRE 1104 336 1104 272
WIRE 752 384 752 304
WIRE 960 384 960 320
WIRE 960 384 752 384
WIRE 1040 384 960 384
WIRE 752 400 752 384
WIRE 96 448 96 288
WIRE 560 448 432 448
WIRE 624 448 624 400
WIRE 624 448 560 448
WIRE 688 448 624 448
WIRE 432 480 432 448
WIRE 560 480 560 448
WIRE -80 544 -80 368
WIRE 752 544 752 496
WIRE 560 592 560 544
WIRE 432 624 432 560
WIRE -80 704 -80 608
WIRE -80 704 -640 704
WIRE 96 704 96 528
WIRE 96 704 -80 704
WIRE 560 704 560 656
WIRE 560 704 96 704
WIRE 752 704 752 624
WIRE 752 704 560 704
WIRE 1104 704 1104 432
WIRE 1104 704 752 704
WIRE 1264 704 1264 320
WIRE 1264 704 1104 704
WIRE 1520 704 1520 368
WIRE 1520 704 1264 704
FLAG 496 96 0
FLAG -608 -176 IN
FLAG -1040 96 IN
FLAG -1040 288 0
FLAG -640 704 B-
FLAG -640 -880 B+
FLAG -848 -352 0
FLAG -1024 -640 B+
FLAG -1024 -160 B-
FLAG 1968 -176 OUT
FLAG -160 128 0
FLAG 2320 80 0
FLAG 432 624 0
FLAG 288 -176 NEG_IN
FLAG 480 -176 FB
FLAG 1472 96 0
FLAG 1840 96 0
FLAG -1216 288 0
DATAFLAG 864 -176 ""
SYMBOL npn 32 192 R0
SYMATTR InstName Q5
SYMATTR Value BC547B
SYMBOL res 80 432 R0
SYMATTR InstName R5
SYMATTR Value 1k
SYMBOL res -96 80 R0
SYMATTR InstName R6
SYMATTR Value 10k
SYMBOL npn -80 -224 R0
SYMATTR InstName Q1
SYMATTR Value BC547B
SYMBOL npn 288 -224 M0
SYMATTR InstName Q2
SYMATTR Value BC547B
SYMBOL voltage -1040 144 R0
WINDOW 123 24 124 Left 2
WINDOW 39 0 0 Left 0
SYMATTR Value2 AC 0
SYMATTR InstName V2
SYMATTR Value PULSE(-1 1 0.5m 1n 1n 0.5m 1m)
SYMBOL cap -464 -192 R90
WINDOW 0 0 32 VBottom 2
WINDOW 3 32 32 VTop 2
SYMATTR InstName C!
SYMATTR Value 33µ
SYMBOL voltage -1024 -320 R0
WINDOW 123 0 0 Left 0
WINDOW 39 24 44 Left 2
SYMATTR InstName V3
SYMATTR Value 40
SYMBOL res 640 -192 R90
WINDOW 0 0 56 VBottom 2
WINDOW 3 32 56 VTop 2
SYMATTR InstName R9
SYMATTR Value 22k
SYMBOL res 480 -16 R0
SYMATTR InstName R7
SYMATTR Value 1k
SYMBOL pnp 688 -640 M180
SYMATTR InstName Q6
SYMATTR Value BD140C
SYMBOL npn 1200 -624 R0
SYMATTR InstName Q10
SYMATTR Value MJL3281C
SYMBOL pnp 1200 320 M180
SYMATTR InstName Q12
SYMATTR Value MJL1302C
SYMBOL res 1248 -352 R0
SYMATTR InstName R16
SYMATTR Value 0.22
SYMBOL res 1248 -80 R0
SYMATTR InstName R17
SYMATTR Value 0.22
SYMBOL cap 480 -80 R0
SYMATTR InstName C4
SYMATTR Value 220µ
SYMBOL res 736 -864 R0
SYMATTR InstName R10
SYMATTR Value 150
SYMBOL npn 1040 -688 R0
SYMATTR InstName Q9
SYMATTR Value BD139C
SYMBOL pnp 1040 432 M180
SYMATTR InstName Q11
SYMATTR Value BD140C
SYMBOL res -176 -112 R0
SYMATTR InstName R2
SYMATTR Value 22k
SYMBOL cap -288 -80 R0
SYMATTR InstName C2
SYMATTR Value 220p
SYMBOL res -336 -192 R90
WINDOW 0 0 56 VBottom 2
WINDOW 3 32 56 VTop 2
SYMATTR InstName R1
SYMATTR Value 2.2k
SYMBOL diode -96 304 R0
SYMATTR InstName D1
SYMATTR Value 1N4148
SYMBOL diode -96 544 R0
SYMATTR InstName D2
SYMATTR Value 1N4148
SYMBOL pnp 48 -432 R180
SYMATTR InstName Q3
SYMATTR Value BC557B
SYMBOL pnp 160 -432 M180
SYMATTR InstName Q4
SYMATTR Value BC557B
SYMBOL npn 688 400 R0
SYMATTR InstName Q8
SYMATTR Value BD139C
SYMBOL res 736 528 R0
SYMATTR InstName R14
SYMATTR Value 150
SYMBOL diode 544 480 R0
SYMATTR InstName D4
SYMATTR Value 1N4148
SYMBOL diode 544 592 R0
SYMATTR InstName D5
SYMATTR Value 1N4148
SYMBOL res 416 464 R0
SYMATTR InstName R13
SYMATTR Value 10k
SYMBOL res -32 -752 R0
SYMATTR InstName R3
SYMATTR Value 1k
SYMBOL res 208 -752 R0
SYMATTR InstName R4
SYMATTR Value 1k
SYMBOL cap 640 -656 R0
SYMATTR InstName C5
SYMATTR Value 47p
SYMBOL res 368 -352 M90
WINDOW 0 0 56 VBottom 2
WINDOW 3 32 56 VTop 2
SYMATTR InstName R8
SYMATTR Value 0
SYMBOL npn 688 -48 R0
SYMATTR InstName Q7
SYMATTR Value BD139C
SYMBOL res 624 -128 R0
SYMATTR InstName R11
SYMATTR Value 22k
SYMBOL res 624 32 R0
SYMATTR InstName R12
SYMATTR Value 25k
SYMBOL res 1200 -512 R90
WINDOW 0 0 56 VBottom 2
WINDOW 3 32 56 VTop 2
SYMATTR InstName 1.5k
SYMATTR Value 100
SYMBOL res 1200 192 R90
WINDOW 0 0 56 VBottom 2
WINDOW 3 32 56 VTop 2
SYMATTR InstName R19
SYMATTR Value 100
SYMBOL cap 1456 -128 R0
SYMATTR InstName C3
SYMATTR Value 100n
SYMBOL res 1456 -32 R0
SYMATTR InstName R20
SYMATTR Value 10
SYMBOL res 1712 -192 R90
WINDOW 0 0 56 VBottom 2
WINDOW 3 32 56 VTop 2
SYMATTR InstName R21
SYMATTR Value 10
SYMBOL ind 1600 -48 R270
WINDOW 0 32 56 VTop 2
WINDOW 3 5 56 VBottom 2
SYMATTR InstName L1
SYMATTR Value 10µ
SYMBOL cap -896 -544 R0
SYMATTR InstName C14
SYMATTR Value 7m
SYMBOL cap -896 -272 R0
SYMATTR InstName C13
SYMATTR Value 7m
SYMBOL res 1216 -400 R90
WINDOW 0 0 56 VBottom 2
WINDOW 3 32 56 VTop 2
SYMATTR InstName R24
SYMATTR Value 2.2k
SYMBOL npn 1024 -432 M0
SYMATTR InstName Q13
SYMATTR Value BC547B
SYMBOL res 1088 -352 R0
SYMATTR InstName R25
SYMATTR Value 10k
SYMBOL cap 1024 -480 R90
WINDOW 0 0 32 VBottom 2
WINDOW 3 32 32 VTop 2
SYMATTR InstName C11
SYMATTR Value 470p
SYMBOL pnp 1024 128 R180
SYMATTR InstName Q14
SYMATTR Value BC557B
SYMBOL res 1216 112 R90
WINDOW 0 0 56 VBottom 2
WINDOW 3 32 56 VTop 2
SYMATTR InstName R27
SYMATTR Value 2.2k
SYMBOL res 1088 -80 R0
SYMATTR InstName R26
SYMATTR Value 10k
SYMBOL cap 1024 160 R90
WINDOW 0 0 32 VBottom 2
WINDOW 3 32 32 VTop 2
SYMATTR InstName C12
SYMATTR Value 470p
SYMBOL voltage 448 -176 R90
WINDOW 0 -32 56 VBottom 2
WINDOW 3 32 56 VTop 2
WINDOW 123 -4 56 VBottom 2
WINDOW 39 0 0 Left 0
SYMATTR InstName V4
SYMATTR Value ""
SYMATTR Value2 AC 1
SYMBOL schottky 944 -592 R0
SYMATTR InstName D6
SYMATTR Value 1N5819
SYMATTR Description Diode
SYMATTR Type diode
SYMBOL diode 944 256 R0
SYMATTR InstName D3
SYMATTR Value 1N4148
SYMBOL voltage -1024 -560 R0
WINDOW 123 0 0 Left 0
WINDOW 39 24 44 Left 2
SYMATTR InstName V1
SYMATTR Value 40
SYMBOL ind 2176 -160 R270
WINDOW 0 32 56 VTop 2
WINDOW 3 5 56 VBottom 2
SYMATTR InstName L102
SYMATTR Value 0.43m
SYMBOL res 2176 -192 R90
WINDOW 0 0 56 VBottom 2
WINDOW 3 32 56 VTop 2
SYMATTR InstName R114
SYMATTR Value 6
SYMBOL cap 2304 -96 R0
SYMATTR InstName C105
SYMATTR Value 240µ
SYMBOL ind 2416 -128 R0
SYMATTR InstName L103
SYMATTR Value 127m
SYMBOL res 2576 -128 R0
SYMATTR InstName R122
SYMATTR Value 137
SYMBOL cap 2704 -112 R0
SYMATTR InstName C111
SYMATTR Value 12µ
SYMBOL cap 816 -32 R0
SYMATTR InstName C6
SYMATTR Value 1µ
SYMBOL res 1824 -128 R0
SYMATTR InstName R123
SYMATTR Value 8
SYMBOL voltage -1216 144 R0
WINDOW 123 24 124 Left 2
WINDOW 39 0 0 Left 0
SYMATTR Value2 AC 0
SYMATTR InstName V5
SYMATTR Value SINE(0 1 1k)
SYMBOL cap 1824 0 R0
SYMATTR InstName C107
SYMATTR Value 100µ
SYMBOL diode 1488 -496 R180
WINDOW 0 24 64 Left 2
WINDOW 3 24 0 Left 2
SYMATTR InstName D7
SYMATTR Value RFUH5TF6S
SYMBOL diode 1536 368 R180
WINDOW 0 24 64 Left 2
WINDOW 3 24 0 Left 2
SYMATTR InstName D8
SYMATTR Value RFUH5TF6S
SYMBOL ind 1920 -16 R0
SYMATTR InstName L2
SYMATTR Value 1m
SYMBOL cap 608 336 R0
SYMATTR InstName C1
SYMATTR Value 4.7n
SYMBOL res 96 -80 R90
WINDOW 0 0 56 VBottom 2
WINDOW 3 32 56 VTop 2
SYMATTR InstName R15
SYMATTR Value 100
SYMBOL res 240 -80 R90
WINDOW 0 0 56 VBottom 2
WINDOW 3 32 56 VTop 2
SYMATTR InstName R22
SYMATTR Value 100
TEXT -352 800 Left 2 !.tran 0 60m 50m 0.5u\n.four 1000 10 -1 v(out)
TEXT -344 752 Left 2 ;.ac dec 1000 10 100000k
TEXT 2448 80 Left 2 ;SPEAKER MODEL
TEXT -184 -720 Left 2 ;IRL: 50uA\nSim: 122uA
TEXT -16 488 Left 2 ;168uA
TEXT -152 -256 Left 2 ;IRL: 80uA\nSim: 160nA
TEXT 288 -720 Left 2 ;IRL: 50uA\nSim: 122uA
TEXT 1744 160 Left 2 ;SIMPLE SPEAKER MODEL
RECTANGLE Normal 2864 128 2080 -256 2
